Examples/ADiakoptics/IEEE_13_Bus/Torn_Circuit/zone_2/Branches.dss
New "Line.670671" phases=3 bus1=670.1.2.3 bus2=671.1.2.3 linecode=mtx601 Seasons=1 Ratings=[400,] normamps=400 emergamps=600 length=1333 units=ft
New "Line.671692" phases=3 bus1=671 bus2=692 Switch=True r1=0.0001 r0=0.0001 x1=0 x0=0 C1=0 C0=0
New "Line.692675" phases=3 bus1=692.1.2.3 bus2=675.1.2.3 linecode=mtx606 Seasons=1 Ratings=[400,] normamps=400 emergamps=600 length=500 units=ft
New "Line.671684" phases=2 bus1=671.1.3 bus2=684.1.3 linecode=mtx604 Seasons=1 Ratings=[400,] normamps=400 emergamps=600 length=300 units=ft
New "Line.684652" phases=1 bus1=684.1 bus2=652.1 linecode=mtx607 Seasons=1 Ratings=[400,] normamps=400 emergamps=600 length=800 units=ft
New "Line.684611" phases=1 bus1=684.3 bus2=611.3 linecode=mtx605 Seasons=1 Ratings=[400,] normamps=400 emergamps=600 length=300 units=ft
New "Line.671680" phases=3 bus1=671.1.2.3 bus2=680.1.2.3 linecode=mtx601 Seasons=1 Ratings=[400,] normamps=400 emergamps=600 length=1000 units=ft
